%mem=16GB
%nprocs=24
#p opt b3lyp/6-31g*

Auto Spiro

0 1
 C   12.636117   11.917505   12.623957
 C   11.332823   11.230134   12.208016
 C   11.575721    9.885486   11.854511
 C   12.993895    9.599421   12.037893
 C   13.639712   10.769423   12.491199
 C   12.982474   13.127650   11.750474
 C   13.104938   14.288417   12.542792
 C   12.869679   13.933021   13.937174
 C   12.592298   12.551578   14.016081
 C   13.151508   13.166157   10.376564
 C   13.467659   14.392145    9.753854
 C   13.599001   15.551196   10.547093
 C   13.412759   15.505699   11.926041
 C   13.745525    8.434747   11.848396
 C   15.113761    8.449077   12.105157
 C   15.757041    9.615493   12.569035
 C   14.997544   10.788549   12.762769
 C   10.065045   11.781890   12.126176
 C    8.992591   10.981509   11.682146
 C    9.233848    9.637628   11.332126
 C   10.512223    9.091528   11.411595
 C   12.885661   14.695394   15.110302
 C   12.629545   14.080861   16.332846
 C   12.367668   12.697497   16.413710
 C   12.349364   11.930115   15.230605
 N   13.652257   14.458282    8.354918
 N   17.144978    9.609146   12.833909
 N    7.687799   11.520840   11.584302
 N   12.130035   12.092413   17.670233
 C   12.865117   12.512077   18.810846
 C    7.199864   12.397357   12.587651
 C   11.181348   11.045535   17.799316
 C    6.861993   11.188380   10.479683
 C   14.249722   13.376320    7.655147
 C   13.265924   15.617928    7.631145
 C   17.772444    8.446349   13.354294
 C   17.931044   10.762032   12.569035
 C   19.001699    8.006269   12.849016
 C   19.632862    6.872478   13.365830
 C   19.025293    6.143099   14.395121
 C   17.790768    6.574314   14.904690
 C   17.179466    7.712301   14.398209
 C   13.733035   12.943545    6.427989
 C   14.330432   11.899657    5.718225
 C   15.455641   11.252458    6.243052
 C   15.974589   11.673005    7.477146
 C   15.386331   12.723644    8.166862
 C   14.099485   16.158884    6.644618
 C   13.717115   17.284552    5.911296
 C   12.489604   17.904867    6.173265
 C   11.651690   17.374704    7.166605
 C   12.029788   16.244022    7.876487
 C   18.896418   11.199766   13.483450
 C   19.684240   12.323147   13.221684
 C   19.500904   13.043911   12.035123
 C   18.531738   12.615034   11.115271
 C   17.766386   11.487323   11.374800
 C    7.444578   12.145638   13.943576
 C    6.975109   13.008873   14.935719
 C    6.226718   14.138822   14.583299
 C    5.966750   14.392293   13.228105
 C    6.453477   13.540521   12.246433
 C    7.385194   11.131758    9.181409
 C    6.580121   10.797546    8.090362
 C    5.218773   10.531501    8.281510
 C    4.683578   10.596292    9.576703
 C    5.493959   10.911000   10.658554
 C    9.942636   11.108109   17.133389
 C    9.011546   10.087948   17.265070
 C    9.279180    8.979260   18.082903
 C   10.503949    8.908577   18.756916
 C   11.444698    9.929602   18.603649
 C   14.242682   12.751898   18.733240
 C   14.966217   13.183548   19.847099
 C   14.318116   13.361300   21.075611
 C   12.940969   13.108117   21.166491
 C   12.225458   12.699304   20.050110
 H   12.152419   10.859234   15.281182
 H    9.889157   12.825025   12.389515
 H    8.399270    9.023246   10.995928
 H   10.669781    8.046610   11.140811
 H   13.275374    7.518956   11.487977
 H   15.704911    7.548193   11.946069
 H   13.084218   15.767535   15.077377
 H   12.632372   14.670899   17.248482
 H   13.524920   16.417763   12.513809
 H   13.852253   16.494761   10.065772
 H   15.482298   11.695056   13.125295
 H   13.040769   12.264297    9.774679
 O    8.289983    8.034488   18.155697
 C    8.538128    6.888568   18.960508
 O    4.338867   10.202751    7.283312
 C    4.845637   10.155692    5.955369
 O   19.548105    5.012512   14.965693
 O   16.115297   10.216347    5.636507
 C   15.605915    9.756079    4.391163
 C   20.795975    4.545602   14.468554
 H   17.330595    6.006758   15.713152
 H   16.225698    8.042157   14.808713
 H   12.853789   13.437291    6.015373
 H   13.900424   11.594727    4.766513
 H   20.588285    6.563143   12.946978
 H   19.476639    8.562042   12.041083
 H   16.856371   11.168634    7.872459
 H   15.803069   13.048354    9.119848
 H   12.398483    9.860227   19.125591
 H   10.746299    8.059769   19.393145
 H    8.053593   10.134058   16.746912
 H    9.719661   11.966559   16.500309
 H    7.025189   10.763421    7.097912
 H    8.440929   11.348007    9.021036
 H    3.624532   10.381647    9.717312
 H    5.067139   10.947981   11.660410
 H    5.638222    9.396861    5.850204
 H    5.239663   11.134910    5.638267
 H    3.997355    9.882977    5.319473
 H   15.625603   10.550099    3.626820
 H   14.576188    9.376040    4.490403
 H   16.264809    8.938745    4.080813
 H   21.036175    3.651222   15.052361
 H   21.592718    5.294739   14.605916
 H   20.732155    4.277700   13.401314
 H    8.704072    7.162560   20.015167
 H    9.406716    6.317732   18.594316
 H    7.639333    6.268052   18.885124
 H    5.390115   15.277799   12.961985
 H    6.253745   13.754962   11.197217
 H    7.187403   12.781495   15.978611
 H    8.018572   11.263515   14.226746
 H   14.756893   12.608286   17.783432
 H   16.034433   13.363315   19.743952
 H   12.443527   13.255777   22.124826
 H   11.154197   12.517426   20.131933
 H   20.424850   12.631272   13.956913
 H   19.039490   10.650260   14.413432
 H   18.403166   13.177660   10.190656
 H   17.021500   11.157811   10.650831
 H   11.365277   15.835539    8.637296
 H   10.693530   17.857613    7.357010
 H   14.391205   17.672758    5.150329
 H   15.060400   15.687792    6.440038
 O    5.714170   15.044965   15.473453
 C    5.949635   14.807157   16.856556
 O   12.020825   19.015623    5.522273
 C   12.849827   19.582237    4.514809
 O   20.206963   14.163579   11.683404
 C   21.182722   14.638409   12.602595
 O   14.929327   13.775213   22.229811
 C   16.321449   14.059808   22.168436
 H    5.462420   15.629732   17.389856
 H    7.026676   14.808396   17.089958
 H    5.510383   13.850309   17.182287
 H   16.604576   14.389153   23.173178
 H   16.537920   14.863794   21.446371
 H   16.906918   13.165878   21.899515
 H   21.619610   15.530643   12.142776
 H   21.975468   13.891871   12.773868
 H   20.728741   14.911362   13.568893
 H   12.303792   20.448776    4.128414
 H   13.032671   18.870623    3.693186
 H   13.816370   19.914761    4.926461

