%mem=16GB
%nprocs=24
#p opt b3lyp/6-31g*

Auto Spiro

0 1
C         12.93032      -11.10743        0.14819
C         11.69976      -11.86964       -0.34627
C         12.07240      -13.16050       -0.78936
C         13.49074      -13.36611       -0.51718
C         14.01149      -12.19834        0.07365
C         13.29829       -9.91113       -0.74725
C         13.58380       -8.78417        0.04735
C         13.37208       -9.12610        1.44904
C         12.90951      -10.45670        1.53218
C         13.35830       -9.85577       -2.13318
C         13.73053       -8.64736       -2.75678
C         14.06536       -7.53443       -1.95640
C         13.98383       -7.59409       -0.57007
C         14.32881      -14.47076       -0.69330
C         15.64915      -14.41202       -0.25233
C         16.14953      -13.26581        0.39508
C         15.31322      -12.13933        0.54097
C         10.39319      -11.42180       -0.47332
C          9.42954      -12.26583       -1.06251
C          9.80204      -13.54890       -1.49737
C         11.11442      -13.99735       -1.36623
C         13.58059       -8.38810        2.62037
C         13.33326       -8.98240        3.85329
C         12.87083      -10.30743        3.93719
C         12.64908      -11.04754        2.76260
N         13.76115       -8.52107       -4.16481
N         17.46363      -13.24655        0.92814
N          8.09587      -11.80289       -1.24246
N         12.66036      -10.88990        5.22237
C         13.74738      -10.94837        6.12762
C          7.38823      -11.28132       -0.12429
C         11.54873      -11.75453        5.40914
C          7.31680      -12.30321       -2.32292
C         13.84216       -9.65615       -5.01414
C         13.37435       -7.28931       -4.76327
C         18.15109      -14.46184        1.19721
C         18.22549      -12.04589        0.88550
C         19.43223      -14.66841        0.66216
C         20.13809      -15.84691        0.89141
C         19.56132      -16.86481        1.65226
C         18.29229      -16.67543        2.19809
C         17.58879      -15.48365        2.00358
C         12.88334       -9.85847       -6.01222
C         12.96206      -10.93584       -6.89655
C         14.00645      -11.84774       -6.77305
C         14.98365      -11.66411       -5.79040
C         14.92834      -10.56543       -4.92505
C         14.15887       -6.72826       -5.80435
C         13.76294       -5.52400       -6.39815
C         12.61402       -4.86092       -5.95786
C         11.84546       -5.39859       -4.92747
C         12.22519       -6.60888       -4.34674
C         19.01159      -11.64991        1.99986
C         19.76873      -10.47510        1.93347
C         19.73136       -9.66888        0.79284
C         18.94469      -10.03727       -0.29609
C         18.21186      -11.22252       -0.24464
C          7.46283      -11.91745        1.12483
C          6.67659      -11.50160        2.19642
C          5.79462      -10.42955        2.03856
C          5.73472       -9.76277        0.81582
C          6.53032      -10.16186       -0.26281
C          7.78671      -12.19474       -3.65896
C          7.01115      -12.69284       -4.71038
C          5.76151      -13.26853       -4.46158
C          5.28277      -13.35747       -3.15772
C          6.06416      -12.88545       -2.10225
C         10.23612      -11.26735        5.17925
C          9.14083      -12.11436        5.37200
C          9.33085      -13.42962        5.80761
C         10.61553      -13.90904        6.05053
C         11.71275      -13.07224        5.84343
C         15.06591      -11.08915        5.65888
C         16.14472      -11.17156        6.53574
C         15.93254      -11.13442        7.91484
C         14.63300      -10.98432        8.39940
C         13.54665      -10.86917        7.53025
H         12.31085      -12.08208        2.83172
H         10.10759      -10.42080       -0.14792
H          9.04661      -14.19569       -1.94270
H         11.38013      -14.99912       -1.70596
H         13.95993      -15.38476       -1.16052
H         16.29966      -15.27539       -0.38129
H         13.93745       -7.35839        2.57489
H         13.49646       -8.42430        4.77495
H         14.23481       -6.71330        0.02266
H         14.37880       -6.61130       -2.44115
H         15.68664      -11.24122        1.03263
H         13.10014      -10.72527       -2.73794
H         17.81754      -17.44546        2.80617
O         16.32855      -15.40255        2.54551
H         12.06943       -9.13789       -6.09519
H         12.20316      -11.06232       -7.66827
H         21.12976      -15.97462        0.45771
H         19.86743      -13.88196        0.04528
H         15.80533      -12.37301       -5.71664
O         15.88045      -10.27993       -3.99632
H         12.72420      -13.43393        6.02884
H         10.76907      -14.93182        6.39272
H          8.13201      -11.74332        5.20503
O         10.14256       -9.96054        4.80072
H          7.37061      -12.61272       -5.73404
O          8.99506      -11.58578       -3.82502
H          4.30972      -13.80281       -2.95344
H          5.70208      -12.96421       -1.07771
H          5.07221       -8.91011        0.66751
O          6.36682       -9.48114       -1.44419
H          5.16039      -10.10782        2.86470
H          6.73386      -12.03834        3.14310
H          8.12767      -12.77486        1.23048
H         15.23106      -11.14451        4.58331
H         17.15230      -11.28516        6.13512
H         16.76875      -11.21235        8.60922
H         14.42980      -10.93625        9.46937
O         12.29132      -10.74121        8.08397
H         20.37396      -10.16969        2.78435
O         18.96196      -12.46260        3.09400
H         20.31409       -8.74850        0.76840
H         18.90173       -9.40809       -1.18478
H         17.59307      -11.52570       -1.08750
H         11.63137       -7.04534       -3.54383
H         10.94628       -4.88959       -4.58232
H         12.32849       -3.91912       -6.42607
H         14.36077       -5.08693       -7.19514
O         15.27934       -7.42071       -6.15290
H         20.09634      -17.79775        1.82833
H         14.07730      -12.70384       -7.44367
H          5.16750      -13.64013       -5.29616
H          8.46372      -14.07183        5.96146
C         11.70053       -9.44237        7.93109
C          8.84389       -9.42022        4.57240
C          7.53840       -8.83873       -1.97365
C          9.54113      -11.53426       -5.13898
C         16.07965       -6.90267       -7.20928
C         17.03280      -11.11430       -3.95718
C         19.77325      -12.12541        4.21398
C         16.13991      -14.42091        3.57569
H         12.29252       -8.68471        8.47010
H         10.70191       -9.50895        8.37697
H         11.60873       -9.15903        6.87293
H          9.00465       -8.37340        4.29559
H          8.22451       -9.46595        5.48303
H          8.32824       -9.93923        3.75123
H          7.20002       -8.28968       -2.85908
H          8.31138       -9.56219       -2.26395
H          7.94819       -8.12739       -1.23906
H         10.52251      -11.06215       -5.03747
H          8.91040      -10.93451       -5.81521
H          9.66763      -12.54404       -5.55952
H         16.90666       -7.60966       -7.32873
H         16.48245       -5.90763       -6.96147
H         15.51297       -6.84169       -8.15174
H         17.70572      -10.65627       -3.22613
H         17.53460      -11.15341       -4.93704
H         16.78186      -12.13734       -3.63489
H         19.58680      -12.90431        4.96023
H         19.49898      -11.14332        4.63195
H         20.84224      -12.12197        3.94944
H         16.74347      -14.67513        4.46143
H         15.07659      -14.45818        3.83423
H         16.40379      -13.41154        3.23581

