%mem=16GB
%nprocs=24
#p opt b3lyp/6-31g*

Auto Spiro

0 1
C         12.74934      -11.35197        0.29167
C         11.46221      -12.05268       -0.14972
C         11.74511      -13.36426       -0.59267
C         13.15855      -13.64485       -0.35845
C         13.76670      -12.48876        0.17252
C         13.08180      -10.17881       -0.64344
C         13.23781       -8.98989        0.09519
C         13.06709       -9.29125        1.51143
C         12.75648      -10.66191        1.65628
C         13.21298      -10.19678       -2.02237
C         13.51342       -8.99883       -2.70075
C         13.67151       -7.80808       -1.96230
C         13.53110       -7.79832       -0.57759
C         13.92989      -14.79554       -0.55311
C         15.28232      -14.78038       -0.22042
C         15.88607      -13.62649        0.31899
C         15.10725      -12.46845        0.51561
C         10.18666      -11.52033       -0.25934
C          9.17284      -12.29080       -0.85719
C          9.45700      -13.58866       -1.31640
C         10.73250      -14.13292       -1.17794
C         13.21701       -8.48890        2.64761
C         13.08684       -9.06287        3.90820
C         12.80340      -10.43381        4.05609
C         12.61426      -11.23467        2.91263
N         13.67803       -9.00356       -4.10645
N         17.25518      -13.63555        0.67509
N          7.86923      -11.74087       -1.02743
N         12.75705      -11.00049        5.35725
C         13.81853      -10.74592        6.26032
C          7.15085      -11.31511        0.11518
C         11.66205      -11.81515        5.73943
C          7.34862      -11.58543       -2.33305
C         14.34405      -10.10570       -4.71763
C         13.19211       -7.94603       -4.90789
C         17.81986      -14.79526        1.27480
C         18.05625      -12.48495        0.47886
C         19.06114      -15.28628        0.85585
C         19.62994      -16.41368        1.45233
C         18.94427      -17.08415        2.47315
C         17.69349      -16.60417        2.89123
C         17.14518      -15.47139        2.30666
C         13.78167      -10.76517       -5.81495
C         14.43425      -11.84061       -6.42174
C         15.66353      -12.28390       -5.91701
C         16.22982      -11.63130       -4.81097
C         15.58200      -10.55287       -4.22471
C         13.88779       -7.57041       -6.06739
C         13.39600       -6.53593       -6.86478
C         12.22262       -5.84542       -6.52490
C         11.54449       -6.23174       -5.35838
C         12.01003       -7.27582       -4.55752
C         19.01758      -12.12437        1.43392
C         19.79883      -10.98502        1.22951
C         19.63561      -10.18189        0.09058
C         18.66777      -10.56068       -0.85263
C         17.88833      -11.70444       -0.67359
C          7.16593      -12.12066        1.26363
C          6.45784      -11.70835        2.39854
C          5.74456      -10.50684        2.40064
C          5.73729       -9.71587        1.24780
C          6.43589      -10.10673        0.09900
C          8.19323      -11.29528       -3.41366
C          7.69094      -11.15770       -4.71023
C          6.31864      -11.29087       -4.94704
C          5.46449      -11.57975       -3.87170
C          5.97092      -11.73374       -2.58919
C         10.34715      -11.45774        5.38984
C          9.26838      -12.23898        5.78120
C          9.47296      -13.39938        6.54257
C         10.77704      -13.76909        6.89406
C         11.85723      -12.98475        6.48532
C         15.13470      -10.68071        5.77581
C         16.18191      -10.42166        6.66873
C         15.93411      -10.24186        8.03244
C         14.61973      -10.31802        8.50092
C         13.55308      -10.56139        7.62702
H         12.40440      -12.29847        3.02853
H          9.96356      -10.50634        0.07444
H          8.65848      -14.16448       -1.78410
H         10.93308      -15.14546       -1.53030
H         13.48769      -15.70203       -0.96852
H         15.89015      -15.67115       -0.37368
H         13.44529       -7.42635        2.55544
H         13.22170       -8.45806        4.80442
H         13.66548       -6.86527       -0.02877
H         13.91044       -6.88692       -2.49181
H         15.56285      -11.57352        0.93836
H         13.08768      -11.12092       -2.58679
O          8.34434      -14.09925        6.88988
C          8.51806      -15.26850        7.68076
O          5.71846      -11.16184       -6.17449
C          6.55715      -10.85213       -7.27960
O         19.40389      -18.20004        3.11911
O         16.38278      -13.33057       -6.42807
C         15.83001      -14.02652       -7.53861
C         20.67146      -18.71138        2.72364
H         17.17261      -17.12721        3.69260
H         16.17904      -15.10022        2.64725
H         12.82234      -10.42788       -6.20660
H         13.96841      -12.32929       -7.27484
H         20.59943      -16.76355        1.10394
H         19.59665      -14.77430        0.05677
H         17.19084      -11.97623       -4.43016
H         16.03951      -10.05143       -3.37198
H         12.86895      -13.28080        6.76041
H         10.96917      -14.66933        7.47432
H          8.25152      -11.95172        5.51458
H         10.17421      -10.55197        4.80929
H          8.38216      -10.93012       -5.51924
H          9.26226      -11.17462       -3.24193
H          4.39840      -11.69588       -4.06622
H          5.29619      -11.96996       -1.76726
H          7.30942      -11.63942       -7.45148
H          7.07238       -9.88773       -7.13992
H          5.89655      -10.78713       -8.15047
H         15.70182      -13.36322       -8.40927
H         14.85983      -14.48404       -7.28643
H         16.54838      -14.81451       -7.78678
H         20.85294      -19.58602        3.35639
H         21.47303      -17.97235        2.88406
H         20.67004      -19.02032        1.66601
H          8.99566      -15.03621        8.64646
H          9.11861      -16.02895        7.15553
H          7.51263      -15.66270        7.86067
O          5.01841       -8.55340        1.34029
H          6.44829       -9.49480       -0.79823
H          5.18866      -10.19774        3.28321
O          6.39097      -12.43948        3.55428
H          7.71486      -13.05760        1.24355
H         15.31863      -10.84238        4.71805
O         17.49553      -10.34709        6.29320
H         16.75441      -10.04989        8.72087
O         14.46581      -10.12234        9.84852
H         12.52662      -10.60286        7.97917
O         20.70314      -10.71040        2.22296
H         19.16450      -12.71542        2.33515
H         20.24025       -9.29360       -0.05724
O         18.42725       -9.86525       -2.00868
H         17.15609      -11.97477       -1.43110
H         11.44262       -7.55817       -3.67386
O         10.38446       -5.63966       -4.93099
H         11.84990       -5.03739       -7.14486
O         14.14698       -6.24486       -7.97447
H         14.80963       -8.06965       -6.35660
C         13.14787      -10.19249       10.37997
C         21.51538       -9.55088        2.08219
C         13.71364       -5.17953       -8.80996
C          4.97108       -7.71327        0.19258
H         13.25099      -10.02491       11.45707
H         12.69205      -11.18043       10.20640
H         12.49592       -9.41438        9.95162
H         22.15254       -9.52266        2.97198
H         20.90799       -8.63243        2.04131
H         22.14987       -9.60739        1.18324
H         14.45024       -5.11399       -9.61726
H         13.68529       -4.22171       -8.26564
H         12.71977       -5.38056       -9.24183
H          4.34299       -6.86116        0.47283
H          4.52145       -8.23022       -0.67005
H          5.97374       -7.35080       -0.08547
C         19.19656       -8.69450       -2.25768
H         18.84719       -8.30710       -3.22015
H         20.27198       -8.92392       -2.32673
H         19.03499       -7.93173       -1.47934
C         17.80295      -10.55011        4.91603
H         18.88979      -10.45357        4.83080
H         17.31826       -9.79499        4.27737
H         17.50213      -11.55414        4.57797
C          6.97210      -13.74244        3.54385
H          6.79846      -14.15408        4.54284
H          8.05665      -13.70236        3.36002
H          6.49471      -14.38242        2.78518
C          9.84175       -4.59061       -5.72183
H          8.92628       -4.27424       -5.21151
H          9.59010       -4.93592       -6.73781
H         10.53235       -3.73436       -5.79037

