%mem=16GB
%nprocs=24
#p opt b3lyp/6-31g*

Auto Spiro

0 1
 C   12.778975   11.702420   12.778213
 C   11.465221   11.000735   12.422746
 C   11.703911    9.654430   12.072527
 C   13.132072    9.383554   12.191162
 C   13.788212   10.565849   12.596561
 C   13.069260   12.925208   11.902956
 C   13.212987   14.079536   12.701212
 C   13.046292   13.707926   14.101055
 C   12.788892   12.322907   14.177815
 C   13.171082   12.982641   10.522467
 C   13.435833   14.220642    9.901765
 C   13.588420   15.372849   10.699966
 C   13.472223   15.309096   12.085735
 C   13.884109    8.223056   11.981142
 C   15.263948    8.254070   12.166782
 C   15.918658    9.434297   12.575204
 C   15.158367   10.602791   12.792457
 C   10.189858   11.540211   12.394549
 C    9.105480   10.725785   12.009357
 C    9.342473    9.380478   11.662335
 C   10.628371    8.846302   11.688149
 C   13.104472   14.459603   15.279696
 C   12.906115   13.831524   16.505604
 C   12.659465   12.444882   16.583912
 C   12.602340   11.687922   15.395226
 N   13.551089   14.310021    8.494325
 N   17.319221    9.449212   12.763110
 N    7.792611   11.253394   11.970277
 N   12.473372   11.826484   17.841805
 C   13.228041   12.259510   18.966314
 C    7.346171   12.126135   12.998103
 C   11.539825   10.769932   17.997341
 C    6.909317   10.895665   10.920592
 C   14.176839   13.272257    7.755964
 C   13.034489   15.440171    7.808228
 C   17.990280    8.308429   13.273166
 C   18.078733   10.586299   12.373556
 C   19.203468    7.879112   12.720337
 C   19.886484    6.776257   13.239604
 C   19.348499    6.066475   14.319579
 C   18.127697    6.482702   14.873041
 C   17.465046    7.590293   14.364401
 C   13.657136   12.849267    6.526334
 C   14.283620   11.848023    5.780803
 C   15.441576   11.232660    6.270625
 C   15.963451   11.642370    7.507205
 C   15.346631   12.651445    8.232813
 C   13.774341   16.048191    6.779799
 C   13.284337   17.147789    6.083231
 C   12.014651   17.681591    6.413498
 C   11.292213   17.093494    7.456688
 C   11.787025   15.980766    8.139721
 C   19.094257   11.071705   13.220675
 C   19.860136   12.176590   12.859496
 C   19.604475   12.841495   11.630471
 C   18.590349   12.359706   10.804454
 C   17.838253   11.234753   11.162770
 C    7.646810   11.875209   14.337097
 C    7.206443   12.752882   15.334433
 C    6.443686   13.876873   15.021250
 C    6.125891   14.129775   13.660387
 C    6.586417   13.266726   12.669926
 C    7.358669   10.812387    9.595963
 C    6.493917   10.456094    8.558914
 C    5.145123   10.196443    8.830777
 C    4.683505   10.286025   10.152561
 C    5.553216   10.621192   11.180920
 C   10.279594   10.818830   17.371405
 C    9.362844    9.790053   17.535074
 C    9.667885    8.685247   18.344997
 C   10.914147    8.628072   18.980278
 C   11.839340    9.658154   18.795200
 C   14.597282   12.505818   18.865122
 C   15.317671   12.947871   19.980946
 C   14.696313   13.127502   21.215834
 C   13.304526   12.866282   21.326120
 C   12.588524   12.449862   20.207478
 H   12.419372   10.614523   15.443696
 H   10.014891   12.582877   12.660317
 H    8.498480    8.755275   11.373781
 H   10.782611    7.799830   11.421521
 H   13.405755    7.297505   11.658272
 H   15.855247    7.356549   11.990660
 H   13.290389   15.534080   15.248704
 H   12.944068   14.412249   17.426277
 H   13.599023   16.215740   12.678985
 H   13.800293   16.325071   10.215199
 H   15.654346   11.519441   13.111674
 H   13.046251   12.086637    9.914412
 O    8.691239    7.730138   18.449732
 C    8.973066    6.591415   19.253654
 O    4.209337    9.851833    7.889702
 C    4.642728    9.765305    6.538148
 O   19.929054    4.970100   14.902863
 O   16.130917   10.238011    5.628368
 C   15.621778    9.791766    4.377812
 C   21.163168    4.517623   14.360234
 H   17.720598    5.929358   15.718985
 H   16.524658    7.910400   14.811907
 H   12.752092   13.316099    6.139285
 H   13.850501   11.551701    4.827711
 H   20.827477    6.476048   12.783017
 H   19.625301    8.420444   11.874021
 H   16.868187   11.159929    7.877122
 H   15.765631   12.964528    9.188830
 H   12.810417    9.599617   19.285843
 H   11.185575    7.782448   19.608999
 H    8.387694    9.827234   17.049223
 H   10.027568   11.673514   16.743977
 H    6.883327   10.399599    7.544400
 H    8.404044   11.022310    9.372137
 H    3.634362   10.072428   10.356447
 H    5.184846   10.675804   12.204763
 H    5.421087    8.995257    6.410238
 H    5.028567   10.731328    6.173736
 H    3.758580    9.486087    5.955878
 H   15.603534   10.605268    3.634640
 H   14.607799    9.372396    4.480073
 H   16.305065    9.006785    4.038055
 H   21.455250    3.649182   14.959418
 H   21.945427    5.290706   14.433567
 H   21.054855    4.213029   13.306593
 H    9.159965    6.872390   20.303064
 H    9.840486    6.030059   18.870590
 H    8.081522    5.958389   19.201931
 O    5.380608   15.249024   13.426875
 H    6.361706   13.461685   11.624100
 H    7.453463   12.537230   16.372213
 H    8.231825   10.996955   14.605411
 H   15.105888   12.362144   17.913383
 H   16.384003   13.136835   19.876657
 O   12.762918   13.067361   22.562572
 H   11.519958   12.261474   20.278614
 O   20.861921   12.706635   13.619717
 H   19.271343   10.565253   14.166487
 H   18.384293   12.851302    9.855640
 H   17.056606   10.868470   10.499072
 H   11.196837   15.530836    8.936481
 H   10.312962   17.481735    7.729338
 O   14.039171   17.635305    5.041023
 H   14.753161   15.661694    6.499066
 O    5.959460   14.779783   15.925184
 C    6.258106   14.545599   17.295336
 O   11.572386   18.733902    5.655365
 C   10.273694   19.241737    5.937293
 O   20.395933   13.921329   11.360964
 C   20.157169   14.608818   10.139168
 O   15.317343   13.540778   22.360441
 C   16.710289   13.811530   22.280167
 H    5.791733   15.367872   17.847361
 H    7.344872   14.550904   17.479748
 H    5.838426   13.587609   17.643404
 H   17.011698   14.126762   23.284346
 H   16.924852   14.620861   21.563204
 H   17.282019   12.914108   21.992542
 H   20.879051   15.431503   10.113692
 H   20.319199   13.954196    9.267472
 H   19.134684   15.017854   10.098296
 H   10.208269   19.643385    6.961400
 H    9.500828   18.468376    5.802038
 H   10.106687   20.050816    5.219023
 C   11.369542   12.822029   22.713501
 C   21.139572   12.077084   14.864821
 C   14.497659   18.988491    5.174009
 C    5.042511   15.538445   12.075651
 H   21.965637   12.643795   15.306397
 H   20.268583   12.114266   15.539052
 H   21.446030   11.027523   14.728803
 H   11.144588   13.026000   23.765360
 H   11.115035   11.775720   22.480234
 H   10.770051   13.490673   22.074770
 H    4.443014   16.453840   12.109260
 H    4.449123   14.727273   11.623902
 H    5.941333   15.711932   11.462215
 H   15.076844   19.110130    6.103342
 H   13.664287   19.703331    5.161199
 H   15.151948   19.168488    4.313922

