%mem=16GB
%nprocs=24
#p sp B3LYP/aug-cc-pVQZ

Auto Spiro; and yes I said yes I will Yes.

0 1
C 0.175792 -0.131311 0.013942
C -0.399155 -1.189373 -0.939345
C -0.152575 -0.831818 -2.277952
C 0.550474 0.453299 -2.301297
C 0.737122 0.892035 -0.975397
C -0.875002 0.404639 0.990840
C -0.511251 0.108103 2.319409
C 0.784866 -0.573948 2.311164
C 1.226888 -0.692915 0.979959
C -2.065738 1.048314 0.694845
C -2.915660 1.439203 1.746450
C -2.542766 1.162234 3.075189
C -1.356627 0.490414 3.363957
C 1.008630 1.246127 -3.356502
C 1.636404 2.458827 -3.080995
C 1.839592 2.887990 -1.755636
C 1.385044 2.084144 -0.693332
C -1.119882 -2.326876 -0.611232
C -1.607727 -3.156802 -1.640349
C -1.309092 -2.829449 -2.980328
C -0.601932 -1.672411 -3.299808
C 1.593040 -1.058114 3.342285
C 2.827670 -1.625759 3.039386
C 3.298891 -1.688548 1.711153
C 2.469971 -1.222032 0.670768
N -4.144836 2.100248 1.473347
N 2.500651 4.119807 -1.498637
N -2.380896 -4.301834 -1.333645
N 4.595814 -2.195083 1.447928
C 5.637537 -1.996591 2.405529
C -2.182598 -4.974696 -0.091177
C 4.935919 -2.791661 0.201383
C -3.437693 -4.746147 -2.175633
C -4.214397 3.091270 0.457740
C -5.312866 1.737554 2.198551
C 3.638825 4.486481 -2.270935
C 2.065927 4.962159 -0.441437
C 3.777528 5.803528 -2.746710
C 4.894065 6.144962 -3.499424
C 5.881002 5.204530 -3.813338
C 5.734616 3.893991 -3.344325
C 4.623692 3.541091 -2.567504
C -5.322281 3.150200 -0.392883
C -5.406129 4.133821 -1.385696
C -4.369294 5.057970 -1.555248
C -3.258512 4.979990 -0.708744
C -3.170289 4.021763 0.294059
C -6.185591 2.724531 2.664802
C -7.344237 2.374233 3.368523
C -7.630168 1.030002 3.634780
C -6.742674 0.051914 3.174092
C -5.599872 0.383984 2.456864
C 3.000753 5.624819 0.359674
C 2.580462 6.474390 1.390408
C 1.217085 6.653264 1.648607
C 0.290762 5.973454 0.850504
C 0.691899 5.143266 -0.188979
C -0.986822 -5.644473 0.171486
C -0.775115 -6.303404 1.383742
C -1.784522 -6.305161 2.343205
C -2.991895 -5.643100 2.104354
C -3.195836 -4.964277 0.897865
C -4.261938 -3.816913 -2.835578
C -5.299718 -4.264628 -3.654087
C -5.542871 -5.638853 -3.806090
C -4.734071 -6.546543 -3.134183
C -3.677962 -6.116561 -2.326922
C 4.057868 -3.702058 -0.415462
C 4.406919 -4.285122 -1.636916
C 5.640780 -3.993763 -2.237408
C 6.504170 -3.102447 -1.612982
C 6.161332 -2.489251 -0.406927
C 5.875395 -0.734089 2.958403
C 6.902661 -0.577501 3.892322
C 7.703498 -1.650401 4.266223
C 7.470090 -2.914168 3.702585
C 6.433475 -3.091235 2.782922
H 2.812475 -1.259209 -0.357661
H -1.332420 -2.566010 0.425461
H -1.655019 -3.483734 -3.773262
H -0.403356 -1.437711 -4.342704
H 0.867916 0.936389 -4.388969
H 1.981165 3.086395 -3.896254
H 1.270213 -1.000671 4.378860
H 3.452607 -2.006734 3.839525
H -1.092135 0.286441 4.398500
H -3.196153 1.478264 3.881952
H 1.544649 2.401276 0.332219
H -2.348825 1.249678 -0.333434
H 5.887000 -4.465680 -3.182822
H -6.358440 -5.959856 -4.445685
H 6.735534 5.498007 -4.411288
H -4.412392 5.823408 -2.320773
O 6.627095 2.884698 -3.573773
H 4.544352 2.522135 -2.205499
H -6.135925 2.440327 -0.297587
O -6.539517 4.091826 -2.149577
H 4.998233 7.162392 -3.867408
H 3.012718 6.539244 -2.523329
H -2.452050 5.698291 -0.832015
H -2.306057 3.984134 0.948015
H 6.833484 -1.778296 0.060012
H 7.455678 -2.862531 -2.080161
O 3.620076 -5.170547 -2.317117
H 3.117296 -3.935077 0.067414
O -6.147892 -3.436835 -4.335565
H -4.084823 -2.760341 -2.684239
H -4.915529 -7.611974 -3.250261
H -3.042670 -6.835308 -1.820738
O -4.320324 -4.263800 0.589950
H 0.163032 -6.818441 1.568104
H -0.223196 -5.641875 -0.599912
H 5.263844 0.109919 2.658311
H 7.089284 0.403456 4.321117
O 8.299329 -3.913265 4.126925
H 6.226817 -4.059270 2.343937
O 3.587759 7.069935 2.097652
H 4.064598 5.494416 0.197678
H -0.770127 6.112473 1.042797
H -0.042411 4.634380 -0.803554
H -4.930316 -0.386580 2.090626
H -6.963777 -0.994294 3.370323
O -8.121547 3.425397 3.767335
H -5.983317 3.774500 2.485830
H -1.640463 -6.819785 3.289272
H -8.518593 0.739174 4.182429
H 0.871636 7.300343 2.445827
H 8.511200 -1.538837 4.982228
C -5.950807 -2.036052 -4.228729
H -4.955615 -1.738758 -4.584870
H -6.079938 -1.685857 -3.196062
H -6.713015 -1.577555 -4.861782
H -3.761469 -5.644795 2.867839
C -5.388865 -4.252389 1.522533
H -5.766792 -5.264957 1.714899
H -6.176938 -3.654131 1.062214
H -5.089440 -3.791458 2.473420
C 2.316899 -5.431269 -1.823144
C 8.126374 -5.209864 3.577786
H 8.895107 -5.833982 4.037436
H 8.262209 -5.209248 2.488292
H 7.136404 -5.621499 3.815744
H 1.856548 -6.113848 -2.540355
H 1.718791 -4.513122 -1.758885
H 2.347508 -5.913009 -0.835949
C 7.796179 3.180869 -4.318591
H 8.363127 2.249275 -4.368633
H 8.405972 3.950259 -3.826203
H 7.555039 3.512191 -5.337627
C 3.236137 7.914798 3.180097
H 4.178749 8.267097 3.603584
H 2.672869 7.372367 3.951249
H 2.645357 8.778057 2.845251
C -6.678627 5.042720 -3.191677
C -9.298418 3.146212 4.506628
H -9.753607 4.114891 4.721771
H -9.071908 2.634833 5.451908
H -10.004741 2.535403 3.928485
H -7.636076 4.825801 -3.669407
H -5.874330 4.951231 -3.933927
H -6.693064 6.069984 -2.803535

