%mem=16GB
%nprocs=24
#p sp B3LYP/aug-cc-pVDZ

Auto Spiro; and yes I said yes I will Yes.

0 1
C 0.018671 -0.040829 0.127087
C 0.567933 -1.095786 1.095021
C 0.381753 -0.686472 2.430244
C -0.283059 0.617860 2.435947
C -0.505540 1.019291 1.103837
C 1.057614 0.506655 -0.859427
C 0.631934 0.305198 -2.186787
C -0.671467 -0.360807 -2.169140
C -1.049998 -0.583014 -0.830734
C 2.267295 1.118325 -0.571558
C 3.083668 1.564717 -1.629862
C 2.656915 1.360832 -2.957910
C 1.446865 0.731122 -3.238215
C -0.692107 1.451741 3.478945
C -1.305880 2.669103 3.188501
C -1.536547 3.066395 1.857722
C -1.126049 2.221344 0.807172
C 1.177516 -2.300436 0.787225
C 1.609817 -3.143935 1.830767
C 1.418262 -2.735771 3.166174
C 0.817698 -1.515163 3.466405
C -1.521897 -0.770423 -3.199212
C -2.723140 -1.401755 -2.887536
C -3.104331 -1.623339 -1.549341
C -2.250132 -1.198891 -0.511890
N 4.321891 2.209053 -1.379210
N -2.165596 4.305122 1.559073
N 2.208054 -4.390875 1.528574
N -4.341305 -2.253435 -1.265127
C -5.488106 -1.905679 -2.033945
C 1.683569 -5.169813 0.457672
C -4.491068 -3.124264 -0.152919
C 3.205732 -4.955549 2.369252
C 4.520020 2.986779 -0.202098
C 5.442413 1.912856 -2.207910
C -3.146707 4.852298 2.433772
C -1.618145 5.123731 0.529440
C -3.139730 6.207472 2.777589
C -4.123009 6.748435 3.609961
C -5.125177 5.926897 4.133534
C -5.133979 4.564079 3.802461
C -4.167601 4.037776 2.957851
C 5.695531 2.877598 0.546052
C 5.910354 3.669486 1.676962
C 4.930084 4.575221 2.091680
C 3.741672 4.681211 1.354299
C 3.543580 3.907555 0.219891
C 6.224920 2.934564 -2.779616
C 7.355891 2.627222 -3.544899
C 7.707589 1.295810 -3.780681
C 6.919404 0.268377 -3.241794
C 5.816492 0.581756 -2.461037
C -2.433144 5.704659 -0.460782
C -1.886348 6.549529 -1.433635
C -0.513145 6.805132 -1.455446
C 0.314549 6.210550 -0.491621
C -0.239685 5.395524 0.484932
C 0.329523 -5.494231 0.401222
C -0.217245 -6.239075 -0.648042
C 0.629316 -6.694840 -1.660888
C 1.999543 -6.392780 -1.625354
C 2.526702 -5.625146 -0.589170
C 4.245921 -4.169895 2.880133
C 5.230088 -4.719861 3.702669
C 5.204607 -6.085563 4.007752
C 4.176721 -6.882153 3.487532
C 3.186892 -6.323421 2.689034
C -3.485452 -4.052088 0.177395
C -3.642128 -4.914292 1.252385
C -4.816642 -4.895855 2.019705
C -5.826913 -3.987732 1.693911
C -5.654154 -3.105507 0.623182
C -5.915363 -0.582852 -2.128355
C -7.026660 -0.208561 -2.889871
C -7.747549 -1.199535 -3.558642
C -7.345353 -2.542143 -3.477248
C -6.219784 -2.897935 -2.737853
H -2.537358 -1.353474 0.523281
H 1.324077 -2.602741 -0.244759
H 1.738455 -3.390455 3.969618
H 0.676473 -1.228759 4.505758
H -0.522103 1.171259 4.515483
H -1.609291 3.325948 3.996762
H -1.250034 -0.616355 -4.240674
H -3.381286 -1.736944 -3.682654
H 1.142756 0.588888 -4.272362
H 3.288624 1.700260 -3.772436
H -1.294590 2.519649 -0.223128
H 2.588815 1.253783 0.455766
O -4.872482 -5.799036 3.048070
C -6.026922 -5.799055 3.868008
O 6.124025 -6.730398 4.793175
C 7.185344 -5.966664 5.336464
O -6.129882 6.346108 4.964510
O 5.029078 5.394254 3.183977
C 6.209939 5.323756 3.962825
C -6.161399 7.713972 5.330206
H -5.920294 3.935737 4.209628
H -4.193828 2.982834 2.703143
H 6.460673 2.172097 0.238474
H -4.085186 7.805790 3.846647
H -2.361854 6.854554 2.385404
H 2.990272 5.392829 1.683565
H 2.621600 4.008839 -0.344143
H -6.441301 -2.396137 0.387943
H -6.745563 -3.942129 2.268220
H -2.866965 -5.629276 1.512530
H -2.577079 -4.091712 -0.415125
H 6.016698 -4.076848 4.081484
H 4.287871 -3.114409 2.631058
H 4.163370 -7.939603 3.733732
H 2.389128 -6.950507 2.303639
H 6.816400 -5.168330 5.995249
H 7.809082 -5.519646 4.550036
H 7.789781 -6.663401 5.920978
H 7.100057 5.586786 3.374876
H 6.350927 4.324294 4.396818
H 6.083427 6.050215 4.768099
H -7.027987 7.831173 5.984111
H -6.279171 8.366042 4.453800
H -5.254760 8.009608 5.875887
H -6.933602 -6.034788 3.293521
H -6.165880 -4.833252 4.372922
H -5.864679 -6.576338 4.617529
H 2.617266 -6.755235 -2.437551
O 3.834778 -5.263337 -0.501132
H -1.277682 -6.460596 -0.650771
H -0.316433 -5.139468 1.198977
H -5.352095 0.175653 -1.592831
H -7.317096 0.833931 -2.936780
H -7.925737 -3.276034 -4.022400
O -5.747724 -4.170117 -2.638291
H -2.567338 6.978117 -2.158791
O -3.797370 5.532396 -0.481557
H 1.379509 6.418644 -0.513086
H 0.398572 4.949879 1.242175
H 5.219937 -0.214010 -2.025186
H 7.202182 -0.762513 -3.428600
H 7.926175 3.457255 -3.943845
O 5.963551 4.266504 -2.560628
O 0.230172 -7.440141 -2.734226
C -1.147073 -7.760690 -2.846208
O 8.785564 0.898920 -4.520513
C 9.616434 1.901896 -5.080811
O 0.111167 7.606364 -2.369160
C -0.685280 8.237791 -3.357816
O -8.857882 -0.975807 -4.323503
C -9.321814 0.358345 -4.450077
H -1.245795 -8.337891 -3.767683
H -1.767330 -6.857298 -2.914269
H -1.490766 -8.369253 -1.999155
H -10.201994 0.309851 -5.094027
H -8.567025 1.006126 -4.915514
H -9.606965 0.780976 -3.477472
H 0.002861 8.829026 -3.965055
H -1.435575 8.902123 -2.908616
H -1.193743 7.503730 -3.997228
H 10.409047 1.372380 -5.612958
H 10.062379 2.537658 -4.304324
H 9.064968 2.534929 -5.788942
C -6.463969 -5.208745 -3.285791
C -4.248610 4.221527 -0.826962
H 6.838817 3.559754 2.225886
C 4.788037 4.777477 -3.192016
C 4.734458 -5.730092 -1.493255
H 5.714487 -5.342006 -1.210393
H 4.467313 -5.354201 -2.489754
H 4.770771 -6.826910 -1.519214
H -5.923899 -6.129137 -3.056824
H -6.490852 -5.062976 -4.373877
H -7.491365 -5.286473 -2.907155
H -5.339942 4.263513 -0.805384
H -3.899104 3.469656 -0.112248
H -3.912531 3.948363 -1.836472
H 4.866285 4.692478 -4.284623
H 4.728907 5.831601 -2.912867
H 3.885057 4.260764 -2.851560

