%mem=16GB
%nprocs=24
#p sp HF/aug-cc-pVQZ

Auto Spiro; and yes I said yes I will Yes.

0 1
C -0.017675 0.118327 0.407437
C -0.648023 1.109399 1.393546
C -0.540105 0.628247 2.713948
C 0.262268 -0.598449 2.698935
C 0.598611 -0.905043 1.365060
C -1.106362 -0.485747 -0.496783
C -0.838143 -0.201491 -1.847968
C 0.431314 0.522709 -1.932050
C 0.935922 0.717889 -0.629665
C -2.245677 -1.176944 -0.116466
C -3.150125 -1.605554 -1.105014
C -2.885607 -1.317900 -2.457400
C -1.741004 -0.617299 -2.830907
C 0.711317 -1.426516 3.729518
C 1.483510 -2.544765 3.423512
C 1.830228 -2.845637 2.092098
C 1.375999 -2.008534 1.053903
C -1.344169 2.274367 1.113060
C -1.991032 2.952734 2.159192
C -1.911228 2.458957 3.469840
C -1.176866 1.306723 3.756445
C 1.159529 0.981757 -3.032172
C 2.381478 1.615439 -2.827033
C 2.902058 1.788571 -1.529885
C 2.157100 1.342315 -0.420075
N -4.313001 -2.337159 -0.740616
N 2.643092 -3.971935 1.804756
N -2.759163 4.130941 1.881936
N 4.173013 2.393583 -1.350416
C 5.257477 2.047424 -2.199941
C -2.061197 5.270736 1.403448
C 4.357610 3.372289 -0.330826
C -4.169089 4.004363 1.743708
C -4.207392 -3.375937 0.229742
C -5.579511 -1.990151 -1.273165
C 3.725486 -4.300893 2.671030
C 2.386995 -4.780235 0.665552
C 3.912396 -5.611954 3.121555
C 4.983421 -5.943911 3.954712
C 5.876826 -4.950591 4.371036
C 5.689678 -3.631015 3.932721
C 4.636295 -3.313578 3.087097
C -5.117418 -3.470298 1.288477
C -5.024301 -4.496615 2.231936
C -3.991701 -5.436074 2.140528
C -3.066300 -5.338694 1.090889
C -3.178245 -4.330550 0.143339
C -6.504558 -3.001412 -1.592024
C -7.762759 -2.667382 -2.087874
C -8.119042 -1.318737 -2.321982
C -7.179857 -0.321417 -2.015664
C -5.927270 -0.654407 -1.485662
C 3.461849 -5.268410 -0.099006
C 3.211807 -6.061663 -1.215725
C 1.890281 -6.392348 -1.601088
C 0.828207 -5.894155 -0.828831
C 1.081315 -5.102320 0.300264
C -0.875951 5.646971 2.051623
C -0.143645 6.740989 1.584942
C -0.584068 7.474705 0.470949
C -1.790637 7.108970 -0.150310
C -2.522177 6.004145 0.300442
C -4.756961 2.807577 1.317300
C -6.143445 2.681011 1.196906
C -6.972753 3.767551 1.486671
C -6.393670 4.969907 1.921895
C -5.017569 5.083098 2.059394
C 3.462045 4.446929 -0.195270
C 3.653815 5.415441 0.781550
C 4.757820 5.336824 1.643884
C 5.658396 4.273198 1.518303
C 5.447652 3.296774 0.542561
C 5.429384 0.715952 -2.606537
C 6.491471 0.379134 -3.451453
C 7.402526 1.358161 -3.883071
C 7.235462 2.683506 -3.446127
C 6.159648 3.033764 -2.623466
H 2.555507 1.471656 0.581647
H -1.423894 2.654440 0.098527
H -2.429818 2.994227 4.259804
H -1.112829 0.943252 4.778954
H 0.458508 -1.214923 4.765444
H 1.828522 -3.198258 4.218040
H 0.781390 0.853808 -4.043305
H 2.954877 1.977096 -3.674279
H -1.553072 -0.413528 -3.882064
H -3.586321 -1.657779 -3.213442
H 1.640450 -2.230281 0.025053
H -2.450087 -1.388352 0.928528
O 4.868490 6.341841 2.569599
C 5.984474 6.324035 3.442833
O -8.336279 3.760734 1.381088
C -8.959762 2.558748 0.950363
O 6.950650 -5.158762 5.191189
O -3.801469 -6.474964 3.010844
C -4.695495 -6.601093 4.102571
C 7.176838 -6.471801 5.674987
H 6.394022 -2.871468 4.257642
H 4.507288 -2.291860 2.743585
H -5.911838 -2.735672 1.376824
H -5.750173 -4.537251 3.036330
H 5.097313 -6.971313 4.281586
H 3.213784 -6.383834 2.813735
H -2.265920 -6.068004 1.020981
H -2.455462 -4.282552 -0.664713
H 6.146044 2.470471 0.451503
H 6.516457 4.183444 2.174965
H 2.965049 6.248908 0.880066
H 2.612326 4.522875 -0.866776
H -6.553718 1.739917 0.849852
H -4.130055 1.956903 1.072122
H -7.046977 5.803788 2.161022
H -4.585832 6.015654 2.409104
H -8.786147 1.740245 1.662634
H -8.607610 2.247669 -0.041024
H -10.029163 2.775950 0.908559
H -5.729030 -6.759651 3.765037
H -4.664783 -5.719015 4.756511
H -4.363206 -7.476449 4.664241
H 8.067895 -6.411297 6.302717
H 7.359197 -7.179948 4.855196
H 6.332656 -6.831924 6.278328
H 6.931945 6.374821 2.889522
H 5.989328 5.428055 4.078583
H 5.888348 7.210863 4.072344
O -2.158669 7.890764 -1.207626
H -3.434041 5.699367 -0.195198
O 1.016925 7.183284 2.156421
H -0.546450 5.082534 2.913345
H 4.737781 -0.037280 -2.253507
O 6.741636 -0.886917 -3.897876
O 8.172307 3.567090 -3.898557
H 6.008119 4.057752 -2.309528
O 4.192675 -6.541371 -2.040005
H 4.472176 -5.001623 0.180771
O -0.500126 -6.080034 -1.101422
H 0.235630 -4.750237 0.879073
H -5.241233 0.150228 -1.248571
O -7.444241 1.022384 -2.105327
O -8.734831 -3.587038 -2.372512
H -6.226896 -4.034923 -1.433861
O 0.175693 8.504853 -0.030988
C -0.107204 9.778960 0.544190
O -9.389781 -0.970458 -2.723370
C -9.776967 -1.386130 -4.036746
O 1.648197 -7.082258 -2.769535
C 2.076406 -8.446380 -2.802479
O 8.407985 1.034280 -4.761755
C 9.633221 0.653341 -4.139421
H 0.563180 10.492092 0.057029
H 0.087775 9.778384 1.624058
H -1.147494 10.075261 0.358166
H 10.330447 0.422358 -4.949150
H 9.499184 -0.237263 -3.512044
H 10.041466 1.471962 -3.533077
H 3.161833 -8.525772 -2.702432
H 1.591306 -9.031996 -2.009339
H 1.768258 -8.834342 -3.776585
H -9.096981 -0.976120 -4.795785
H -10.780085 -0.982472 -4.195593
H -9.801772 -2.475570 -4.118897
C 8.040945 4.929167 -3.525919
C 5.540073 -6.209097 -1.745486
C -8.472633 -4.951442 -2.083343
C -3.355156 7.564659 -1.894517
H 6.140608 -6.685544 -2.522684
H 5.702147 -5.123661 -1.775506
H 5.846760 -6.590274 -0.762764
H 8.883127 5.446560 -3.989602
H 8.089101 5.059057 -2.436552
H 7.102111 5.360929 -3.896736
H -3.458780 8.313156 -2.682721
H -4.230176 7.610046 -1.232498
H -3.301768 6.566261 -2.348466
H -8.243118 -5.099062 -1.020441
H -7.643229 -5.341827 -2.687689
H -9.387941 -5.490003 -2.336160
C 5.811179 -1.905459 -3.571162
C -0.966989 -7.263326 -1.749002
C -8.065903 1.533997 -3.284573
C 1.464675 6.538720 3.341749
H -2.044893 -7.279532 -1.570028
H -0.517172 -8.161017 -1.307074
H -0.764587 -7.244619 -2.821370
H -7.850470 2.605587 -3.290997
H -9.146090 1.372372 -3.273313
H -7.635384 1.076723 -4.184616
H 2.407328 7.021024 3.601629
H 1.649744 5.470906 3.173980
H 0.738877 6.659283 4.156963
H 6.168933 -2.807148 -4.072461
H 4.803489 -1.664967 -3.933406
H 5.767130 -2.085475 -2.488024

