%mem=16GB
%nprocs=24
#p sp MP2/cc-pVQZ

Auto Spiro; and yes I said yes I will Yes.

0 1
C -0.020812 -0.011012 0.254683
C 0.536287 -1.043583 1.241990
C 0.308444 -0.630940 2.569972
C -0.395979 0.652381 2.551170
C -0.595425 1.041096 1.211448
C 1.025849 0.551375 -0.714579
C 0.634624 0.327000 -2.049034
C -0.650907 -0.373411 -2.052427
C -1.054175 -0.588289 -0.720298
C 2.217392 1.189445 -0.409139
C 3.046144 1.639238 -1.455454
C 2.648196 1.425371 -2.789783
C 1.458330 0.766233 -3.088647
C -0.859681 1.475044 3.580255
C -1.503251 2.670385 3.266820
C -1.707915 3.056446 1.927914
C -1.245486 2.221462 0.891504
C 1.194776 -2.228753 0.957699
C 1.635977 -3.043612 2.018777
C 1.401989 -2.633975 3.345719
C 0.750610 -1.434370 3.623739
C -1.465341 -0.820505 -3.096141
C -2.656704 -1.479180 -2.803654
C -3.065123 -1.687241 -1.471067
C -2.246575 -1.227518 -0.420728
N 4.266837 2.304481 -1.171819
N -2.376189 4.269948 1.624613
N 2.311288 -4.263133 1.754156
N -4.284736 -2.354753 -1.194529
C -5.435623 -2.107208 -1.996289
C 1.857066 -5.123471 0.715738
C -4.385156 -3.240399 -0.085935
C 3.428246 -4.645505 2.547045
C 4.348322 3.220355 -0.085585
C 5.427677 2.032699 -1.946946
C -3.488060 4.686955 2.407224
C -1.901401 5.106485 0.574988
C -3.607959 6.011089 2.844651
C -4.711986 6.429128 3.591879
C -5.710483 5.511865 3.935453
C -5.593037 4.180087 3.510799
C -4.505386 3.777014 2.749560
C 5.441667 3.205067 0.787443
C 5.542831 4.120130 1.837751
C 4.526720 5.057902 2.047150
C 3.419277 5.070653 1.186000
C 3.336322 4.173768 0.129978
C 6.269095 3.080012 -2.360550
C 7.418386 2.832952 -3.101217
C 7.750769 1.510174 -3.471949
C 6.900927 0.471600 -3.084510
C 5.759957 0.726115 -2.319467
C -2.818886 5.698121 -0.316406
C -2.383474 6.531822 -1.340770
C -0.996390 6.773117 -1.513674
C -0.095714 6.173505 -0.637357
C -0.540076 5.355128 0.408952
C 0.497961 -5.366826 0.522623
C 0.073008 -6.209977 -0.511697
C 0.989823 -6.840777 -1.348601
C 2.373830 -6.606252 -1.147080
C 2.790912 -5.746690 -0.136334
C 4.427741 -3.721046 2.873416
C 5.523414 -4.086627 3.658459
C 5.649250 -5.404234 4.111777
C 4.658957 -6.340104 3.779715
C 3.560626 -5.964202 3.018960
C -3.377508 -4.187936 0.173780
C -3.480550 -5.057480 1.250706
C -4.603939 -5.022554 2.090475
C -5.616270 -4.091367 1.837195
C -5.495607 -3.204108 0.765044
C -5.794982 -0.811990 -2.364320
C -6.924478 -0.593745 -3.162811
C -7.723897 -1.653913 -3.581476
C -7.368350 -2.973184 -3.199533
C -6.230676 -3.187544 -2.429038
H -2.555753 -1.373023 0.609434
H 1.375125 -2.534821 -0.068005
H 1.735380 -3.270209 4.159214
H 0.579049 -1.142558 4.656903
H -0.711351 1.201819 4.622068
H -1.852763 3.321196 4.061735
H -1.172834 -0.674585 -4.133046
H -3.286463 -1.841567 -3.609502
H 1.173971 0.614517 -4.126964
H 3.284551 1.783639 -3.592452
H -1.404279 2.508359 -0.143238
H 2.517867 1.342949 0.622497
O -4.613567 -5.931346 3.112661
C -5.712568 -5.915625 4.007054
O 6.684004 -5.874643 4.874176
C 7.708021 -4.966292 5.239618
O -6.827469 5.807676 4.668989
O 4.517811 5.992977 3.045248
C 5.609109 6.012070 3.949012
C -6.988150 7.137716 5.129883
H -6.378179 3.479087 3.777152
H -4.432470 2.746928 2.414948
H 6.230659 2.474245 0.640614
H 6.410036 4.079574 2.487024
H -4.770263 7.464296 3.909138
H -2.830952 6.726293 2.593579
H 2.638890 5.806142 1.357498
H 2.477324 4.200032 -0.533390
H -6.280220 -2.476070 0.584452
H -6.494179 -4.032543 2.470706
H -2.703077 -5.787281 1.456445
H -2.505517 -4.230377 -0.471661
H 6.273157 -3.339679 3.893976
H 4.345241 -2.699694 2.514998
H 4.763016 -7.357406 4.144584
H 2.793097 -6.693811 2.780734
H 7.316001 -4.132915 5.838486
H 8.224635 -4.561312 4.358651
H 8.417574 -5.538450 5.840601
H 6.558487 6.213055 3.434096
H 5.694363 5.066233 4.501077
H 5.402962 6.821407 4.652136
H -7.928848 7.152798 5.683852
H -7.047762 7.851501 4.296810
H -6.169699 7.436797 5.798785
H -6.658943 -6.127904 3.490888
H -5.797203 -4.952182 4.527695
H -5.517166 -6.703267 4.737337
O 3.209914 -7.256524 -2.006075
H 3.844425 -5.545517 0.011313
H -0.989303 -6.383374 -0.642228
H -0.234287 -4.897364 1.170680
H -5.195371 0.030059 -2.035632
H -7.181142 0.422648 -3.438910
O -8.196345 -3.957573 -3.652180
H -5.940118 -4.191608 -2.146534
O -3.202454 7.149384 -2.239509
H -3.874013 5.491891 -0.188156
H 0.968078 6.352092 -0.746732
H 0.179226 4.908271 1.086898
H 5.125538 -0.098703 -2.012539
H 7.131806 -0.553504 -3.351742
O 8.235212 3.894505 -3.411275
H 6.044277 4.107434 -2.095670
O 0.674374 -7.688060 -2.371639
C -0.696674 -7.948920 -2.610227
O 8.909238 1.351099 -4.184199
C 9.304776 0.032521 -4.521853
O -0.662290 7.594328 -2.551456
C 0.712537 7.859168 -2.764849
O -8.850094 -1.541878 -4.345074
C -9.250644 -0.242811 -4.740722
H -0.727385 -8.631082 -3.462116
H -1.246724 -7.031184 -2.860185
H -1.175800 -8.428139 -1.745217
H -10.159642 -0.376797 -5.330394
H -8.486290 0.247061 -5.359742
H -9.471576 0.395617 -3.874129
H 0.758434 8.518214 -3.634031
H 1.167582 8.365306 -1.902278
H 1.274810 6.939392 -2.976795
H 8.570309 -0.457618 -5.175352
H 9.455512 -0.584167 -3.625812
H 10.252107 0.131277 -5.055307
C -7.896447 -5.294949 -3.292902
C -4.598619 6.942870 -2.116129
C 8.324371 4.228892 -4.797519
C 4.605082 -7.073806 -1.840448
H -5.058174 7.531031 -2.912868
H -4.865015 5.885120 -2.246431
H -4.975728 7.289076 -1.144319
H -8.683527 -5.906497 -3.738226
H -7.900901 -5.432646 -2.203252
H -6.922591 -5.612829 -3.689607
H 5.079179 -7.693712 -2.603911
H 4.941442 -7.398944 -0.846763
H 4.897718 -6.025749 -1.991685
H 7.332935 4.467920 -5.205816
H 8.774649 3.418916 -5.379305
H 8.959419 5.116354 -4.852590

